<?xml version="1.0" encoding="UTF-8"?>
<!-- 5x5 SUMO grid: heterogeneous time-varying demand
     Phases: early-morning | AM-peak | midday | PM-peak | evening
     Two vehicle types: passenger (85%) + truck (15%)
     Generated by scripts/build_network.py
-->
<routes xmlns:xsi="http://www.w3.org/2001/XMLSchema-instance"
        xsi:noNamespaceSchemaLocation="http://sumo.dlr.de/xsd/routes_file.xsd">

  <!-- Vehicle type definitions -->
  <vType id="passenger"
         accel="2.6" decel="4.5" sigma="0.5"
         length="4.5" minGap="2.5"
         maxSpeed="13.89" guiShape="passenger"/>

  <vType id="truck"
         accel="1.2" decel="3.5" sigma="0.4"
         length="12.0" minGap="3.0"
         maxSpeed="8.33" guiShape="truck"/>

    <flow id="f0" type="passenger" from="A0A1" to="A3A4" begin="0" end="600" period="36.00" departLane="best" departSpeed="max"/>
    <flow id="f1" type="passenger" from="B0B1" to="B3B4" begin="0" end="600" period="30.00" departLane="best" departSpeed="max"/>
    <flow id="f2" type="passenger" from="C0C1" to="C3C4" begin="0" end="600" period="25.71" departLane="best" departSpeed="max"/>
    <flow id="f3" type="passenger" from="D0D1" to="D3D4" begin="0" end="600" period="30.00" departLane="best" departSpeed="max"/>
    <flow id="f4" type="passenger" from="E0E1" to="E3E4" begin="0" end="600" period="36.00" departLane="best" departSpeed="max"/>
    <flow id="f5" type="passenger" from="A4A3" to="A1A0" begin="0" end="600" period="34.62" departLane="best" departSpeed="max"/>
    <flow id="f6" type="passenger" from="B4B3" to="B1B0" begin="0" end="600" period="39.13" departLane="best" departSpeed="max"/>
    <flow id="f7" type="passenger" from="C4C3" to="C1C0" begin="0" end="600" period="45.00" departLane="best" departSpeed="max"/>
    <flow id="f8" type="passenger" from="D4D3" to="D1D0" begin="0" end="600" period="39.13" departLane="best" departSpeed="max"/>
    <flow id="f9" type="passenger" from="E4E3" to="E1E0" begin="0" end="600" period="34.62" departLane="best" departSpeed="max"/>
    <flow id="f10" type="passenger" from="A0B0" to="D0E0" begin="0" end="600" period="72.00" departLane="best" departSpeed="max"/>
    <flow id="f11" type="passenger" from="A1B1" to="D1E1" begin="0" end="600" period="80.00" departLane="best" departSpeed="max"/>
    <flow id="f12" type="passenger" from="A2B2" to="D2E2" begin="0" end="600" period="90.00" departLane="best" departSpeed="max"/>
    <flow id="f13" type="passenger" from="A3B3" to="D3E3" begin="0" end="600" period="80.00" departLane="best" departSpeed="max"/>
    <flow id="f14" type="passenger" from="A4B4" to="D4E4" begin="0" end="600" period="72.00" departLane="best" departSpeed="max"/>
    <flow id="f15" type="passenger" from="E0D0" to="B0A0" begin="0" end="600" period="102.86" departLane="best" departSpeed="max"/>
    <flow id="f16" type="passenger" from="E1D1" to="B1A1" begin="0" end="600" period="114.29" departLane="best" departSpeed="max"/>
    <flow id="f17" type="passenger" from="E2D2" to="B2A2" begin="0" end="600" period="128.57" departLane="best" departSpeed="max"/>
    <flow id="f18" type="passenger" from="E3D3" to="B3A3" begin="0" end="600" period="114.29" departLane="best" departSpeed="max"/>
    <flow id="f19" type="passenger" from="E4D4" to="B4A4" begin="0" end="600" period="102.86" departLane="best" departSpeed="max"/>
    <flow id="f20" type="passenger" from="A0B0" to="E3E4" begin="0" end="600" period="180.00" departLane="best" departSpeed="max"/>
    <flow id="f21" type="passenger" from="E0E1" to="B4A4" begin="0" end="600" period="180.00" departLane="best" departSpeed="max"/>
    <flow id="f22" type="passenger" from="A4B4" to="E1E0" begin="0" end="600" period="180.00" departLane="best" departSpeed="max"/>
    <flow id="f23" type="passenger" from="E4E3" to="B0A0" begin="0" end="600" period="180.00" departLane="best" departSpeed="max"/>
    <flow id="f24" type="truck" from="C0C1" to="C3C4" begin="0" end="600" period="240.00" departLane="best" departSpeed="max"/>
    <flow id="f25" type="truck" from="C4C3" to="C1C0" begin="0" end="600" period="240.00" departLane="best" departSpeed="max"/>
    <flow id="f26" type="passenger" from="A0A1" to="A3A4" begin="600" end="1800" period="6.00" departLane="best" departSpeed="max"/>
    <flow id="f27" type="passenger" from="B0B1" to="B3B4" begin="600" end="1800" period="5.00" departLane="best" departSpeed="max"/>
    <flow id="f28" type="passenger" from="C0C1" to="C3C4" begin="600" end="1800" period="4.29" departLane="best" departSpeed="max"/>
    <flow id="f29" type="passenger" from="D0D1" to="D3D4" begin="600" end="1800" period="5.00" departLane="best" departSpeed="max"/>
    <flow id="f30" type="passenger" from="E0E1" to="E3E4" begin="600" end="1800" period="6.00" departLane="best" departSpeed="max"/>
    <flow id="f31" type="passenger" from="A4A3" to="A1A0" begin="600" end="1800" period="5.77" departLane="best" departSpeed="max"/>
    <flow id="f32" type="passenger" from="B4B3" to="B1B0" begin="600" end="1800" period="6.52" departLane="best" departSpeed="max"/>
    <flow id="f33" type="passenger" from="C4C3" to="C1C0" begin="600" end="1800" period="7.50" departLane="best" departSpeed="max"/>
    <flow id="f34" type="passenger" from="D4D3" to="D1D0" begin="600" end="1800" period="6.52" departLane="best" departSpeed="max"/>
    <flow id="f35" type="passenger" from="E4E3" to="E1E0" begin="600" end="1800" period="5.77" departLane="best" departSpeed="max"/>
    <flow id="f36" type="passenger" from="A0B0" to="D0E0" begin="600" end="1800" period="16.00" departLane="best" departSpeed="max"/>
    <flow id="f37" type="passenger" from="A1B1" to="D1E1" begin="600" end="1800" period="17.78" departLane="best" departSpeed="max"/>
    <flow id="f38" type="passenger" from="A2B2" to="D2E2" begin="600" end="1800" period="20.00" departLane="best" departSpeed="max"/>
    <flow id="f39" type="passenger" from="A3B3" to="D3E3" begin="600" end="1800" period="17.78" departLane="best" departSpeed="max"/>
    <flow id="f40" type="passenger" from="A4B4" to="D4E4" begin="600" end="1800" period="16.00" departLane="best" departSpeed="max"/>
    <flow id="f41" type="passenger" from="E0D0" to="B0A0" begin="600" end="1800" period="22.86" departLane="best" departSpeed="max"/>
    <flow id="f42" type="passenger" from="E1D1" to="B1A1" begin="600" end="1800" period="25.40" departLane="best" departSpeed="max"/>
    <flow id="f43" type="passenger" from="E2D2" to="B2A2" begin="600" end="1800" period="28.57" departLane="best" departSpeed="max"/>
    <flow id="f44" type="passenger" from="E3D3" to="B3A3" begin="600" end="1800" period="25.40" departLane="best" departSpeed="max"/>
    <flow id="f45" type="passenger" from="E4D4" to="B4A4" begin="600" end="1800" period="22.86" departLane="best" departSpeed="max"/>
    <flow id="f46" type="passenger" from="A0B0" to="E3E4" begin="600" end="1800" period="40.00" departLane="best" departSpeed="max"/>
    <flow id="f47" type="passenger" from="E0E1" to="B4A4" begin="600" end="1800" period="40.00" departLane="best" departSpeed="max"/>
    <flow id="f48" type="passenger" from="A4B4" to="E1E0" begin="600" end="1800" period="40.00" departLane="best" departSpeed="max"/>
    <flow id="f49" type="passenger" from="E4E3" to="B0A0" begin="600" end="1800" period="40.00" departLane="best" departSpeed="max"/>
    <flow id="f50" type="truck" from="C0C1" to="C3C4" begin="600" end="1800" period="40.00" departLane="best" departSpeed="max"/>
    <flow id="f51" type="truck" from="C4C3" to="C1C0" begin="600" end="1800" period="40.00" departLane="best" departSpeed="max"/>
    <flow id="f52" type="passenger" from="A0A1" to="A3A4" begin="1800" end="2700" period="12.86" departLane="best" departSpeed="max"/>
    <flow id="f53" type="passenger" from="B0B1" to="B3B4" begin="1800" end="2700" period="10.71" departLane="best" departSpeed="max"/>
    <flow id="f54" type="passenger" from="C0C1" to="C3C4" begin="1800" end="2700" period="9.18" departLane="best" departSpeed="max"/>
    <flow id="f55" type="passenger" from="D0D1" to="D3D4" begin="1800" end="2700" period="10.71" departLane="best" departSpeed="max"/>
    <flow id="f56" type="passenger" from="E0E1" to="E3E4" begin="1800" end="2700" period="12.86" departLane="best" departSpeed="max"/>
    <flow id="f57" type="passenger" from="A4A3" to="A1A0" begin="1800" end="2700" period="12.36" departLane="best" departSpeed="max"/>
    <flow id="f58" type="passenger" from="B4B3" to="B1B0" begin="1800" end="2700" period="13.98" departLane="best" departSpeed="max"/>
    <flow id="f59" type="passenger" from="C4C3" to="C1C0" begin="1800" end="2700" period="16.07" departLane="best" departSpeed="max"/>
    <flow id="f60" type="passenger" from="D4D3" to="D1D0" begin="1800" end="2700" period="13.98" departLane="best" departSpeed="max"/>
    <flow id="f61" type="passenger" from="E4E3" to="E1E0" begin="1800" end="2700" period="12.36" departLane="best" departSpeed="max"/>
    <flow id="f62" type="passenger" from="A0B0" to="D0E0" begin="1800" end="2700" period="32.00" departLane="best" departSpeed="max"/>
    <flow id="f63" type="passenger" from="A1B1" to="D1E1" begin="1800" end="2700" period="35.56" departLane="best" departSpeed="max"/>
    <flow id="f64" type="passenger" from="A2B2" to="D2E2" begin="1800" end="2700" period="40.00" departLane="best" departSpeed="max"/>
    <flow id="f65" type="passenger" from="A3B3" to="D3E3" begin="1800" end="2700" period="35.56" departLane="best" departSpeed="max"/>
    <flow id="f66" type="passenger" from="A4B4" to="D4E4" begin="1800" end="2700" period="32.00" departLane="best" departSpeed="max"/>
    <flow id="f67" type="passenger" from="E0D0" to="B0A0" begin="1800" end="2700" period="45.71" departLane="best" departSpeed="max"/>
    <flow id="f68" type="passenger" from="E1D1" to="B1A1" begin="1800" end="2700" period="50.79" departLane="best" departSpeed="max"/>
    <flow id="f69" type="passenger" from="E2D2" to="B2A2" begin="1800" end="2700" period="57.14" departLane="best" departSpeed="max"/>
    <flow id="f70" type="passenger" from="E3D3" to="B3A3" begin="1800" end="2700" period="50.79" departLane="best" departSpeed="max"/>
    <flow id="f71" type="passenger" from="E4D4" to="B4A4" begin="1800" end="2700" period="45.71" departLane="best" departSpeed="max"/>
    <flow id="f72" type="passenger" from="A0B0" to="E3E4" begin="1800" end="2700" period="80.00" departLane="best" departSpeed="max"/>
    <flow id="f73" type="passenger" from="E0E1" to="B4A4" begin="1800" end="2700" period="80.00" departLane="best" departSpeed="max"/>
    <flow id="f74" type="passenger" from="A4B4" to="E1E0" begin="1800" end="2700" period="80.00" departLane="best" departSpeed="max"/>
    <flow id="f75" type="passenger" from="E4E3" to="B0A0" begin="1800" end="2700" period="80.00" departLane="best" departSpeed="max"/>
    <flow id="f76" type="truck" from="C0C1" to="C3C4" begin="1800" end="2700" period="85.71" departLane="best" departSpeed="max"/>
    <flow id="f77" type="truck" from="C4C3" to="C1C0" begin="1800" end="2700" period="85.71" departLane="best" departSpeed="max"/>
    <flow id="f78" type="passenger" from="A0A1" to="A3A4" begin="2700" end="3000" period="6.92" departLane="best" departSpeed="max"/>
    <flow id="f79" type="passenger" from="B0B1" to="B3B4" begin="2700" end="3000" period="5.77" departLane="best" departSpeed="max"/>
    <flow id="f80" type="passenger" from="C0C1" to="C3C4" begin="2700" end="3000" period="4.95" departLane="best" departSpeed="max"/>
    <flow id="f81" type="passenger" from="D0D1" to="D3D4" begin="2700" end="3000" period="5.77" departLane="best" departSpeed="max"/>
    <flow id="f82" type="passenger" from="E0E1" to="E3E4" begin="2700" end="3000" period="6.92" departLane="best" departSpeed="max"/>
    <flow id="f83" type="passenger" from="A4A3" to="A1A0" begin="2700" end="3000" period="6.66" departLane="best" departSpeed="max"/>
    <flow id="f84" type="passenger" from="B4B3" to="B1B0" begin="2700" end="3000" period="7.53" departLane="best" departSpeed="max"/>
    <flow id="f85" type="passenger" from="C4C3" to="C1C0" begin="2700" end="3000" period="8.65" departLane="best" departSpeed="max"/>
    <flow id="f86" type="passenger" from="D4D3" to="D1D0" begin="2700" end="3000" period="7.53" departLane="best" departSpeed="max"/>
    <flow id="f87" type="passenger" from="E4E3" to="E1E0" begin="2700" end="3000" period="6.66" departLane="best" departSpeed="max"/>
    <flow id="f88" type="passenger" from="A0B0" to="D0E0" begin="2700" end="3000" period="18.00" departLane="best" departSpeed="max"/>
    <flow id="f89" type="passenger" from="A1B1" to="D1E1" begin="2700" end="3000" period="20.00" departLane="best" departSpeed="max"/>
    <flow id="f90" type="passenger" from="A2B2" to="D2E2" begin="2700" end="3000" period="22.50" departLane="best" departSpeed="max"/>
    <flow id="f91" type="passenger" from="A3B3" to="D3E3" begin="2700" end="3000" period="20.00" departLane="best" departSpeed="max"/>
    <flow id="f92" type="passenger" from="A4B4" to="D4E4" begin="2700" end="3000" period="18.00" departLane="best" departSpeed="max"/>
    <flow id="f93" type="passenger" from="E0D0" to="B0A0" begin="2700" end="3000" period="25.71" departLane="best" departSpeed="max"/>
    <flow id="f94" type="passenger" from="E1D1" to="B1A1" begin="2700" end="3000" period="28.57" departLane="best" departSpeed="max"/>
    <flow id="f95" type="passenger" from="E2D2" to="B2A2" begin="2700" end="3000" period="32.14" departLane="best" departSpeed="max"/>
    <flow id="f96" type="passenger" from="E3D3" to="B3A3" begin="2700" end="3000" period="28.57" departLane="best" departSpeed="max"/>
    <flow id="f97" type="passenger" from="E4D4" to="B4A4" begin="2700" end="3000" period="25.71" departLane="best" departSpeed="max"/>
    <flow id="f98" type="passenger" from="A0B0" to="E3E4" begin="2700" end="3000" period="45.00" departLane="best" departSpeed="max"/>
    <flow id="f99" type="passenger" from="E0E1" to="B4A4" begin="2700" end="3000" period="45.00" departLane="best" departSpeed="max"/>
    <flow id="f100" type="passenger" from="A4B4" to="E1E0" begin="2700" end="3000" period="45.00" departLane="best" departSpeed="max"/>
    <flow id="f101" type="passenger" from="E4E3" to="B0A0" begin="2700" end="3000" period="45.00" departLane="best" departSpeed="max"/>
    <flow id="f102" type="truck" from="C0C1" to="C3C4" begin="2700" end="3000" period="46.15" departLane="best" departSpeed="max"/>
    <flow id="f103" type="truck" from="C4C3" to="C1C0" begin="2700" end="3000" period="46.15" departLane="best" departSpeed="max"/>
    <flow id="f104" type="passenger" from="A0A1" to="A3A4" begin="3000" end="3600" period="30.00" departLane="best" departSpeed="max"/>
    <flow id="f105" type="passenger" from="B0B1" to="B3B4" begin="3000" end="3600" period="25.00" departLane="best" departSpeed="max"/>
    <flow id="f106" type="passenger" from="C0C1" to="C3C4" begin="3000" end="3600" period="21.43" departLane="best" departSpeed="max"/>
    <flow id="f107" type="passenger" from="D0D1" to="D3D4" begin="3000" end="3600" period="25.00" departLane="best" departSpeed="max"/>
    <flow id="f108" type="passenger" from="E0E1" to="E3E4" begin="3000" end="3600" period="30.00" departLane="best" departSpeed="max"/>
    <flow id="f109" type="passenger" from="A4A3" to="A1A0" begin="3000" end="3600" period="28.85" departLane="best" departSpeed="max"/>
    <flow id="f110" type="passenger" from="B4B3" to="B1B0" begin="3000" end="3600" period="32.61" departLane="best" departSpeed="max"/>
    <flow id="f111" type="passenger" from="C4C3" to="C1C0" begin="3000" end="3600" period="37.50" departLane="best" departSpeed="max"/>
    <flow id="f112" type="passenger" from="D4D3" to="D1D0" begin="3000" end="3600" period="32.61" departLane="best" departSpeed="max"/>
    <flow id="f113" type="passenger" from="E4E3" to="E1E0" begin="3000" end="3600" period="28.85" departLane="best" departSpeed="max"/>
    <flow id="f114" type="passenger" from="A0B0" to="D0E0" begin="3000" end="3600" period="64.00" departLane="best" departSpeed="max"/>
    <flow id="f115" type="passenger" from="A1B1" to="D1E1" begin="3000" end="3600" period="71.11" departLane="best" departSpeed="max"/>
    <flow id="f116" type="passenger" from="A2B2" to="D2E2" begin="3000" end="3600" period="80.00" departLane="best" departSpeed="max"/>
    <flow id="f117" type="passenger" from="A3B3" to="D3E3" begin="3000" end="3600" period="71.11" departLane="best" departSpeed="max"/>
    <flow id="f118" type="passenger" from="A4B4" to="D4E4" begin="3000" end="3600" period="64.00" departLane="best" departSpeed="max"/>
    <flow id="f119" type="passenger" from="E0D0" to="B0A0" begin="3000" end="3600" period="91.43" departLane="best" departSpeed="max"/>
    <flow id="f120" type="passenger" from="E1D1" to="B1A1" begin="3000" end="3600" period="101.59" departLane="best" departSpeed="max"/>
    <flow id="f121" type="passenger" from="E2D2" to="B2A2" begin="3000" end="3600" period="114.29" departLane="best" departSpeed="max"/>
    <flow id="f122" type="passenger" from="E3D3" to="B3A3" begin="3000" end="3600" period="101.59" departLane="best" departSpeed="max"/>
    <flow id="f123" type="passenger" from="E4D4" to="B4A4" begin="3000" end="3600" period="91.43" departLane="best" departSpeed="max"/>
    <flow id="f124" type="passenger" from="A0B0" to="E3E4" begin="3000" end="3600" period="160.00" departLane="best" departSpeed="max"/>
    <flow id="f125" type="passenger" from="E0E1" to="B4A4" begin="3000" end="3600" period="160.00" departLane="best" departSpeed="max"/>
    <flow id="f126" type="passenger" from="A4B4" to="E1E0" begin="3000" end="3600" period="160.00" departLane="best" departSpeed="max"/>
    <flow id="f127" type="passenger" from="E4E3" to="B0A0" begin="3000" end="3600" period="160.00" departLane="best" departSpeed="max"/>
    <flow id="f128" type="truck" from="C0C1" to="C3C4" begin="3000" end="3600" period="200.00" departLane="best" departSpeed="max"/>
    <flow id="f129" type="truck" from="C4C3" to="C1C0" begin="3000" end="3600" period="200.00" departLane="best" departSpeed="max"/>

</routes>
